tests/data/4Bus/FourNodeSystem.dss
Clear

!
! This script is based on a script developed by Tennessee Tech Univ students
! Tyler Patton, Jon Wood, and David Woods, April 2009
!

new circuit.FourNodeSystem
~ basekv=115 pu=1.0001 phases=3 bus1=SourceBus
~ Angle=30                     ! advance angle 30 deg so result agree with published angle
~ MVAsc3=20000 MVASC1=21000    ! stiffen the source to approximate inf source

!SUB TRANSFORMER DEFINITION
! Although this data was given, it does not appear to be used in the test case results
! The published test case starts at 1.0 per unit at Bus 650. To make this happen, we will change the impedance
! on the transformer to something tiny by dividing by 1000 using the DSS in-line RPN math
New Transformer.Sub Phases=3 Windings=2   XHL=(8 1000 /)
~ wdg=1 bus=SourceBus   conn=delta  kv=115  kva=5000   %r=(.5 1000 /)  XHT=4
~ wdg=2 bus=650             conn=wye    kv=4.16  kva=5000   %r=(.5 1000 /)   XLT=4

! FEEDER 1-PHASE VOLTAGE REGULATORS
! Define low-impedance 2-wdg transformer

// New Transformer.Reg1 phases=1 XHL=0.01 kVAs=[1666 1666]
// ~ Buses=[650.1 RG60.1] kVs=[2.4  2.4] %LoadLoss=0.01
// new regcontrol.Reg1  transformer=Reg1 winding=2  vreg=122  band=2  ptratio=20 ctprim=700  R=3   X=9

// New Transformer.Reg2 phases=1 XHL=0.01 kVAs=[1666 1666]
// ~ Buses=[650.2 RG60.2] kVs=[2.4  2.4] %LoadLoss=0.01
// new regcontrol.Reg2  transformer=Reg2 winding=2  vreg=122  band=2  ptratio=20 ctprim=700  R=3   X=9

// New Transformer.Reg3 phases=1 XHL=0.01 kVAs=[1666 1666]
// ~ Buses=[650.3 RG60.3] kVs=[2.4  2.4] %LoadLoss=0.01
// new regcontrol.Reg3  transformer=Reg3 winding=2  vreg=122  band=2  ptratio=20 ctprim=700  R=3   X=9


!TRANSFORMER DEFINITION
// New Transformer.XFM1  Phases=3   Windings=2  XHL=2
// ~ wdg=1 bus=633       conn=Wye kv=4.16    kva=500    %r=.55     XHT=1
// ~ wdg=2 bus=634       conn=Wye kv=0.480    kva=500    %r=.55   XLT=1


!LINE CODES
redirect IEEELineCodes.dss

// Use a single line code
New linecode.mtx601bal nphases=3 BaseFreq=60
~ rmatrix = (0.3418 | 0.1000 0.3418 | 0.1000 0.1000 0.3418 )
~ xmatrix = (1.0335 | 0.5000 1.0335 | 0.5000 0.5000 1.0335 )
~ units=mi

!LOAD DEFINITIONS
New Load.632 Bus1=632.1.2.3  Phases=3 Conn=Wye  Model=1 kV=0.277  kW=160  kvar=110
New Load.671 Bus1=671.1.2.3  Phases=3 Conn=Wye  Model=1 kV=4.16   kW=1155 kvar=660
New Load.680 Bus1=680.1.2.3  Phases=3 Conn=Wye  Model=1 kV=4.16   kW=1155 kvar=660

!LINE DEFINITIONS
// New Line.650632    Phases=3 Bus1=RG60.1.2.3   Bus2=632.1.2.3  LineCode=mtx601bal Length=2000 units=ft
New Line.650632    Phases=3 Bus1=650.1.2.3   Bus2=632.1.2.3  LineCode=mtx601bal Length=2000 units=ft
New Line.632671    Phases=3 Bus1=632.1.2.3    Bus2=671.1.2.3  LineCode=mtx601bal Length=2000 units=ft
New Line.671680    Phases=3 Bus1=671.1.2.3    Bus2=680.1.2.3  LineCode=mtx601bal Length=1000 units=ft

Set Voltagebases=[115, 4.16, .48]
calcv
Solve
BusCoords IEEE13Node_BusXY.csv

!---------------------------------------------------------------------------------------------------------------------------------------------------
!----------------Show some Results -----------------------------------------------------------------------------------------------------------------
!---------------------------------------------------------------------------------------------------------------------------------------------------


Show Voltages LN Nodes
// Show Currents Elem
// Show Powers kVA Elem
// Show Losses
// Show Taps
Export Y
Export Voltages

!---------------------------------------------------------------------------------------------------------------------------------------------------
!---------------------------------------------------------------------------------------------------------------------------------------------------
! Alternate Solution Script
! To force the taps to be same as published results, set the transformer taps manually and disable the controls
!---------------------------------------------------------------------------------------------------------------------------------------------------
/*
Transformer.Reg1.Taps=[1.0 1.0625]
Transformer.Reg2.Taps=[1.0 1.0500]
Transformer.Reg3.Taps=[1.0 1.06875]
Set Controlmode=OFF

Solve
*/
