tests/data/4Bus/FourNodeSystem_EXP_VOLTAGES.CSV
Bus, BasekV, Node1, Magnitude1, Angle1, pu1, Node2, Magnitude2, Angle2, pu2, Node3, Magnitude3, Angle3, pu3
"SOURCEBUS", 115, 1,    66320.9,   30.0,   0.99888, 2,    66320.9,  -90.0,   0.99888, 3,    66320.9,  150.0,   0.99888
"650", 4.16, 1,    2398.21,   -0.1,   0.99852, 2,    2398.21, -120.1,   0.99852, 3,    2398.21,  119.9,   0.99852
"632", 4.16, 1,    1607.71,  -11.0,   0.66939, 2,    1607.71, -131.0,   0.66939, 3,    1607.71,  109.0,   0.66939
"671", 4.16, 1,    1562.04,  -12.1,   0.65037, 2,    1562.04, -132.1,   0.65037, 3,    1562.04,  107.9,   0.65037
"680", 4.16, 1,    1550.75,  -12.4,   0.64567, 2,    1550.75, -132.4,   0.64567, 3,    1550.75,  107.6,   0.64567
